T42/data/state_estimation/PT_Dx_01_2040_W_Bd/PT_Dx_01_2040_W_Bd_t7.csv
bus,vm_pu,va_degree,p_mw,q_mvar
1,0.970479,-0.085687,-11.560576,-4.569205
2,0.999845,0.000418,24.688237,9.281972
3,0.969005,-0.085361,-0.000052,-0.000085
4,0.969567,-0.085194,-0.000061,0.000011
5,0.968767,-0.085367,0.000069,0.000020
6,0.969459,-0.085567,-0.019908,-0.010279
7,0.968731,-0.084852,-0.065885,-0.033731
8,0.968511,-0.085697,-0.009115,-0.004715
9,0.967248,-0.086104,-0.507860,-0.260280
10,0.968325,-0.085738,-2.821692,-1.445483
11,0.968386,-0.086084,-0.584970,-0.299643
12,0.966387,-0.087399,-0.002297,-0.001182
13,0.967843,-0.085459,-0.021235,-0.008405
14,0.968809,-0.085922,-1.435691,-0.685511
15,0.965768,-0.088015,-0.019457,-0.009935
16,0.969690,-0.084483,-0.023789,-0.012162
17,0.969112,-0.084507,-0.004423,-0.002199
18,0.967234,-0.085330,-0.010261,-0.005346
19,0.965605,-0.087813,-0.046259,-0.023594
20,0.968501,-0.085333,-1.280193,-0.606042
21,0.965846,-0.087973,-0.000030,-0.000037
22,0.968465,-0.085417,-0.006147,-0.002355
23,0.965157,-0.086878,-0.064948,-0.033209
24,0.965445,-0.088241,-0.067121,-0.026493
25,0.966636,-0.087169,-0.005027,-0.001959
26,0.967818,-0.084824,-0.032081,-0.016405
27,0.968304,-0.086110,-0.004664,-0.002464
28,0.965526,-0.087336,-0.062206,-0.031791
29,0.968442,-0.085113,-0.026633,-0.013763
30,0.967338,-0.085059,-0.147532,-0.075575
31,0.967934,-0.085483,-0.014222,-0.007347
32,0.969175,-0.084918,-0.110567,-0.056645
33,0.968070,-0.085961,-0.539177,-0.226377
34,0.965865,-0.086946,-0.001699,-0.000955
35,0.965401,-0.087963,-0.008367,-0.004252
36,0.968209,-0.084364,-0.008355,-0.004418
37,0.968599,-0.085165,-0.001502,-0.000478
38,0.965476,-0.086955,-0.083237,-0.042544
39,0.969046,-0.085884,-0.117004,-0.059889
40,0.966473,-0.086935,-0.012427,-0.004959
41,0.965538,-0.086887,-0.015275,-0.006147
42,0.966166,-0.087329,-0.004080,-0.002164
43,0.966195,-0.088092,-0.139597,-0.071534
44,0.966481,-0.087862,-0.030445,-0.015586
45,0.966137,-0.087214,-0.001247,-0.000514
46,0.967569,-0.085194,-0.085767,-0.043966
47,0.965440,-0.087345,-0.374662,-0.191852
48,0.969363,-0.085321,-0.000716,-0.000211
49,0.967474,-0.085553,-0.030481,-0.015612
50,0.968070,-0.085317,-0.002850,-0.001447
51,0.969407,-0.085919,-0.014492,-0.005637
52,0.967971,-0.084563,-0.008530,-0.004323
53,0.966779,-0.086736,-0.209753,-0.107468
54,0.968143,-0.085368,-0.005006,-0.001951
55,0.969984,-0.085220,-0.032849,-0.016747
56,0.968312,-0.086274,-0.010491,-0.005462
57,0.968562,-0.086140,-0.008960,-0.004505
58,0.965473,-0.086866,-0.008879,-0.004582
59,0.965543,-0.087769,-0.028541,-0.011324
60,0.965800,-0.087413,-0.015661,-0.006255
61,0.968699,-0.085712,-0.833465,-0.377128
62,0.969973,-0.085233,-0.001384,-0.000722
63,0.965821,-0.087068,-0.000432,-0.000128
64,0.968445,-0.085907,-0.209192,-0.107134
65,0.968632,-0.084472,-0.542330,-0.227900
66,0.969494,-0.085388,-0.120929,-0.061881
67,0.969269,-0.085971,-0.034811,-0.017841
68,0.966452,-0.087806,-0.115085,-0.058942
69,0.967544,-0.085538,-0.014929,-0.005885
70,0.967737,-0.086045,-0.042367,-0.021765
71,0.966343,-0.086756,-0.007181,-0.003704
72,0.966038,-0.086458,-0.022634,-0.011653
73,0.966374,-0.087493,-0.009072,-0.003617
74,0.965586,-0.087207,-0.005625,-0.002875
75,0.966197,-0.086691,-0.116668,-0.059721
76,0.967298,-0.084875,-0.006550,-0.003279
77,0.969309,-0.085492,-0.007104,-0.003639
78,0.968714,-0.085303,-0.094060,-0.048012
79,0.969163,-0.084485,-0.144509,-0.074092
80,0.966849,-0.086512,0.000009,-0.000056
81,0.965679,-0.086447,-0.000898,-0.000388
82,0.968603,-0.085438,-0.007113,-0.003608
83,0.967933,-0.085250,-0.039932,-0.020463
84,0.968506,-0.086224,-0.003929,-0.002089
85,0.966035,-0.087310,-0.000030,-0.000036
86,0.968699,-0.085148,-0.053142,-0.020896
87,0.968155,-0.085614,-0.030205,-0.015402
88,0.968815,-0.084995,-0.017612,-0.009036
89,0.968794,-0.085111,-0.012088,-0.006284
90,0.967601,-0.084825,-0.010229,-0.005167
91,0.964847,-0.087140,-0.036350,-0.018587
92,0.964800,-0.087875,-0.002137,-0.001028
93,0.967498,-0.085070,-0.035292,-0.018057
94,0.964803,-0.086737,-0.012884,-0.006624
95,0.968222,-0.085250,-0.189376,-0.096966
96,0.965447,-0.087104,-0.012824,-0.005136
97,0.966455,-0.087032,-0.003794,-0.001937
98,0.967242,-0.087414,-0.058719,-0.023248
99,0.968327,-0.085253,-0.341573,-0.125125
100,0.968678,-0.085563,-0.023335,-0.011990
101,0.967234,-0.085374,-0.052499,-0.020752
102,0.968606,-0.084924,-0.374354,-0.141911
103,0.966992,-0.086009,-0.033446,-0.013179
104,0.965086,-0.087106,-0.146716,-0.058024
105,0.969099,-0.083788,-0.001784,-0.000930
106,0.968633,-0.086169,0.000026,0.000044
107,0.968865,-0.085627,0.000034,0.000016
108,0.967044,-0.084812,0.000012,-0.000007
109,0.968814,-0.084870,0.000027,-0.000005
110,0.966789,-0.086250,0.000036,0.000070
111,0.965940,-0.087396,-0.000045,-0.000017
112,0.968485,-0.086311,0.000006,0.000025
113,0.968629,-0.084853,0.000057,0.000029
114,0.966011,-0.087518,-0.000045,0.000000
115,0.965779,-0.087993,-0.000043,-0.000004
116,0.967412,-0.085280,0.000002,-0.000016
117,0.966246,-0.086829,-0.000022,-0.000020
118,0.968902,-0.085757,-0.000015,-0.000049
119,0.967721,-0.086930,0.000038,-0.000055
120,0.968521,-0.085614,-0.000066,0.000009
121,0.968527,-0.085556,0.000006,0.000035
122,0.968041,-0.085571,0.000087,0.000051
123,0.967876,-0.085748,0.000056,0.000152
124,0.968165,-0.085166,0.000025,0.000057
125,0.967658,-0.085739,-0.000110,0.000036
126,0.965509,-0.087420,-0.000105,-0.000048
127,0.968974,-0.085041,-0.000029,0.000077
128,0.966332,-0.087093,-0.000040,0.000036
129,0.965774,-0.087411,-0.000013,-0.000079
130,0.966104,-0.086727,-0.000057,-0.000026
131,0.969282,-0.084464,0.000036,0.000058
132,0.966221,-0.086416,0.000095,-0.000014
133,0.969727,-0.085635,0.000094,-0.000069
134,0.970434,-0.085076,0.000049,0.000028
135,0.966565,-0.087657,0.000114,-0.000023
136,0.966137,-0.087442,0.000041,0.000005
137,0.966588,-0.086670,-0.000000,-0.000006
138,0.966312,-0.088594,-0.000072,0.000042
139,0.966308,-0.086992,0.000002,0.000145
140,0.967304,-0.085424,0.000071,0.000049
141,0.965523,-0.086628,0.000002,0.000013
142,0.965212,-0.087692,0.000029,-0.000010
143,0.966418,-0.086942,-0.000032,0.000053
144,0.968902,-0.085069,0.000057,-0.000024
145,0.968056,-0.085966,-0.000028,0.000063
146,0.968537,-0.086707,0.000026,-0.000050
147,0.967541,-0.084811,-0.000002,-0.000025
148,0.967547,-0.084959,-0.000061,-0.000036
149,0.965280,-0.087290,0.000001,0.000042
150,0.966502,-0.087218,-0.000045,-0.000070
151,0.968855,-0.084938,0.000022,-0.000072
152,0.968215,-0.085256,-0.000012,0.000029
153,0.968131,-0.085486,-0.000105,-0.000001
154,0.968524,-0.086043,0.000006,0.000034
155,0.965307,-0.087562,0.000019,0.000138
156,0.967452,-0.085282,-0.000009,0.000052
157,0.969402,-0.085492,0.000030,-0.000050
158,0.968910,-0.084473,-0.000044,0.000038
159,0.966650,-0.087163,0.000043,-0.000033
160,0.969607,-0.084622,-0.000006,-0.000003
161,0.968992,-0.085769,-0.000057,0.000095
162,0.965228,-0.087272,-0.000051,0.000074
163,0.969989,-0.085502,-0.000074,0.000003
164,0.967487,-0.085851,0.000033,0.000010
165,0.968805,-0.085780,0.000092,0.000014
166,0.969840,-0.085921,0.000018,-0.000026
167,0.965447,-0.087469,-0.000130,0.000041
168,0.968278,-0.086249,-0.000014,0.000073
169,0.968663,-0.084977,0.000017,-0.000005
170,0.968872,-0.085794,-0.000026,-0.000041
171,0.966175,-0.086840,-0.000017,0.000074
172,0.966005,-0.088126,-0.000090,-0.000044
173,0.967708,-0.085922,0.000018,-0.000061
174,0.965965,-0.087726,0.000089,0.000019
175,0.965570,-0.087130,-0.000011,-0.000028
176,0.967544,-0.085535,0.000058,0.000022
177,0.965869,-0.087575,-0.000041,-0.000002
178,0.965187,-0.087004,-0.000034,-0.000021
179,0.968594,-0.085480,0.000062,-0.000026
180,0.969485,-0.085705,-0.000048,0.000076
181,0.965889,-0.086970,0.000007,0.000009
182,0.966369,-0.086934,-0.000045,0.000010
183,0.968313,-0.085088,0.000040,0.000003
184,0.968530,-0.084845,0.000055,-0.000035
185,0.968134,-0.086044,0.000109,-0.000082
186,0.965463,-0.087426,-0.000127,0.000015
187,0.967952,-0.086163,-0.000010,-0.000040
188,0.966136,-0.087523,0.000017,-0.000056
189,0.969286,-0.084908,0.000007,0.000008
190,0.966086,-0.087627,0.000055,0.000084
191,0.970102,-0.084861,0.000039,-0.000100
